Version 4
SHEET 1 916 680
WIRE -144 32 -304 32
WIRE 80 32 -80 32
WIRE 400 32 224 32
WIRE 608 32 464 32
WIRE -432 128 -496 128
WIRE -304 128 -304 32
WIRE -304 128 -352 128
WIRE -240 128 -304 128
WIRE -112 128 -160 128
WIRE -16 128 -112 128
WIRE 80 144 80 32
WIRE 80 144 48 144
WIRE 112 144 80 144
WIRE 224 144 224 32
WIRE 224 144 192 144
WIRE 256 144 224 144
WIRE 368 144 336 144
WIRE 480 144 368 144
WIRE -112 160 -112 128
WIRE -16 160 -48 160
WIRE 608 160 608 32
WIRE 608 160 544 160
WIRE 672 160 608 160
WIRE 368 176 368 144
WIRE 480 176 448 176
WIRE -656 192 -656 160
WIRE -656 192 -720 192
WIRE -496 192 -496 128
WIRE 80 192 80 144
WIRE 608 192 608 160
WIRE -720 208 -720 192
WIRE -656 224 -656 192
WIRE -112 256 -112 224
WIRE 368 256 368 240
WIRE -48 288 -48 160
WIRE 80 288 80 272
WIRE 80 288 -48 288
WIRE 448 288 448 176
WIRE 608 288 608 272
WIRE 608 288 448 288
WIRE 80 304 80 288
WIRE 608 304 608 288
WIRE -496 336 -496 272
WIRE 80 400 80 384
WIRE 608 400 608 384
FLAG 80 400 0
FLAG -112 256 0
FLAG 608 400 0
FLAG 368 256 0
FLAG -720 208 0
FLAG -656 80 Vp
IOPIN -656 80 In
FLAG -656 304 Vm
IOPIN -656 304 In
FLAG 512 192 Vp
IOPIN 512 192 Out
FLAG 16 176 Vp
IOPIN 16 176 Out
FLAG 16 112 Vm
IOPIN 16 112 Out
FLAG 512 128 Vm
IOPIN 512 128 Out
FLAG -496 336 0
FLAG 672 160 Vout
SYMBOL OpAmps\\UniversalOpAmp 16 144 M180
SYMATTR InstName U1
SYMBOL OpAmps\\UniversalOpAmp 512 160 M180
SYMATTR InstName U2
SYMBOL res 592 176 R0
SYMATTR InstName R1
SYMATTR Value 7k68
SYMBOL res 592 288 R0
SYMATTR InstName R2
SYMATTR Value 10k
SYMBOL res 352 128 R90
WINDOW 0 0 56 VBottom 2
WINDOW 3 32 56 VTop 2
SYMATTR InstName R3
SYMATTR Value 100k
SYMBOL res 208 128 R90
WINDOW 0 0 56 VBottom 2
WINDOW 3 32 56 VTop 2
SYMATTR InstName R4
SYMATTR Value 100k
SYMBOL cap 464 16 R90
WINDOW 0 0 32 VBottom 2
WINDOW 3 32 32 VTop 2
SYMATTR InstName C2
SYMATTR Value 10nF
SYMBOL cap -80 16 R90
WINDOW 0 0 32 VBottom 2
WINDOW 3 32 32 VTop 2
SYMATTR InstName C3
SYMATTR Value 10nF
SYMBOL res -144 112 R90
WINDOW 0 0 56 VBottom 2
WINDOW 3 32 56 VTop 2
SYMATTR InstName R5
SYMATTR Value 110k
SYMBOL res 64 176 R0
SYMATTR InstName R7
SYMATTR Value 845
SYMBOL res 64 288 R0
SYMATTR InstName R8
SYMATTR Value 10k
SYMBOL cap 352 176 R0
SYMATTR InstName C1
SYMATTR Value 10nF
SYMBOL cap -128 160 R0
SYMATTR InstName C4
SYMATTR Value 10nF
SYMBOL res -336 112 R90
WINDOW 0 0 56 VBottom 2
WINDOW 3 32 56 VTop 2
SYMATTR InstName R6
SYMATTR Value 110k
SYMBOL voltage -656 208 R0
WINDOW 123 0 0 Left 0
WINDOW 39 0 0 Left 0
SYMATTR InstName V1
SYMATTR Value 12
SYMBOL voltage -656 64 R0
WINDOW 123 0 0 Left 0
WINDOW 39 0 0 Left 0
SYMATTR InstName V2
SYMATTR Value 12
SYMBOL voltage -496 176 R0
WINDOW 3 24 44 Left 2
WINDOW 123 24 72 Left 2
WINDOW 39 0 0 Left 0
SYMATTR Value ""
SYMATTR Value2 AC 5
SYMATTR InstName V3
TEXT -496 424 Left 2 !.ac lin 1000 1 500
